%{%(system/Foundation14SinglePhaseTransport%)
%:True
%[_header%]
FoamFile
{
    version     2.0;
    format      ascii;
    class       dictionary;
    location    "constant";
    object      physicalProperties;
}
// * * * * * * * * * * * * * * * * * * * * * * * * * * * * * * * * * * * * * //

viscosityModel  constant;

nu              %(fluidProperties/0/KinematicViscosity%);

// ************************************************************************* //
%}
